ASN - Ideal conformer
     RDKit          3D

  8  7  0  0  0  0  0  0  0  0999 V2000
   -0.2930    1.6860    0.0940 N   0  0  0  0  0  0  0  0  0  0  0  0
   -0.4480    0.2920   -0.3400 C   0  0  2  0  0  0  0  0  0  0  0  0
   -1.8460   -0.1790   -0.0310 C   0  0  0  0  0  0  0  0  0  0  0  0
   -2.5100    0.4020    0.7940 O   0  0  0  0  0  0  0  0  0  0  0  0
    0.5620   -0.5880    0.4010 C   0  0  0  0  0  0  0  0  0  0  0  0
    1.9600   -0.1970   -0.0020 C   0  0  0  0  0  0  0  0  0  0  0  0
    2.1320    0.6970   -0.8040 O   0  0  0  0  0  0  0  0  0  0  0  0
    3.0190   -0.8410    0.5270 N   0  0  0  0  0  0  0  0  0  0  0  0
  2  1  1  1
  2  3  1  0
  2  5  1  0
  3  4  2  0
  5  6  1  0
  6  7  2  0
  6  8  1  0
M  END
$$$$
