ASP - Ideal conformer
     RDKit          3D

  8  7  0  0  0  0  0  0  0  0999 V2000
   -0.3170    1.6880    0.0660 N   0  0  0  0  0  0  0  0  0  0  0  0
   -0.4700    0.2860   -0.3440 C   0  0  2  0  0  0  0  0  0  0  0  0
   -1.8680   -0.1800   -0.0290 C   0  0  0  0  0  0  0  0  0  0  0  0
   -2.5340    0.4150    0.7860 O   0  0  0  0  0  0  0  0  0  0  0  0
    0.5390   -0.5800    0.4130 C   0  0  0  0  0  0  0  0  0  0  0  0
    1.9380   -0.1950    0.0040 C   0  0  0  0  0  0  0  0  0  0  0  0
    2.1090    0.6810   -0.8100 O   0  0  0  0  0  0  0  0  0  0  0  0
    2.9920   -0.8260    0.5430 O   0  0  0  0  0  0  0  0  0  0  0  0
  2  1  1  1
  2  3  1  0
  2  5  1  0
  3  4  2  0
  5  6  1  0
  6  7  2  0
  6  8  1  0
M  END
$$$$
