CYS - Ideal conformer
     RDKit          3D

  6  5  0  0  0  0  0  0  0  0999 V2000
    1.5850    0.4830   -0.0810 N   0  0  0  0  0  0  0  0  0  0  0  0
    0.1410    0.4500    0.1860 C   0  0  2  0  0  0  0  0  0  0  0  0
   -0.0950    0.0060    1.6060 C   0  0  0  0  0  0  0  0  0  0  0  0
    0.6850   -0.7420    2.1430 O   0  0  0  0  0  0  0  0  0  0  0  0
   -0.5330   -0.5300   -0.7740 C   0  0  0  0  0  0  0  0  0  0  0  0
   -0.2470    0.0040   -2.4840 S   0  0  0  0  0  0  0  0  0  0  0  0
  2  1  1  6
  2  3  1  0
  2  5  1  0
  3  4  2  0
  5  6  1  0
M  END
$$$$
