DA - Ideal conformer
     RDKit          3D

 21 23  0  0  0  0  0  0  0  0999 V2000
    1.8450   -1.2820   -5.3390 O   0  0  0  0  0  0  0  0  0  0  0  0
    0.9340   -0.1560   -4.6360 P   0  0  0  0  0  5  0  0  0  0  0  0
   -0.2040    0.3310   -5.6650 O   0  0  0  0  0  0  0  0  0  0  0  0
    0.2410   -0.7710   -3.3200 O   0  0  0  0  0  0  0  0  0  0  0  0
   -0.5490    0.2700   -2.7440 C   0  0  0  0  0  0  0  0  0  0  0  0
   -1.2390   -0.2510   -1.4820 C   0  0  1  0  0  0  0  0  0  0  0  0
   -0.2670   -0.5640   -0.4580 O   0  0  0  0  0  0  0  0  0  0  0  0
   -2.1050    0.8590   -0.8350 C   0  0  1  0  0  0  0  0  0  0  0  0
   -3.4090    0.8950   -1.4180 O   0  0  0  0  0  0  0  0  0  0  0  0
   -2.1730    0.3980    0.6400 C   0  0  0  0  0  0  0  0  0  0  0  0
   -0.9650   -0.5450    0.7970 C   0  0  2  0  0  0  0  0  0  0  0  0
   -0.0780   -0.0470    1.8520 N   0  0  0  0  0  0  0  0  0  0  0  0
    0.9620    0.8170    1.6890 C   0  0  0  0  0  0  0  0  0  0  0  0
    1.5350    1.0440    2.8350 N   0  0  0  0  0  0  0  0  0  0  0  0
    0.8970    0.3460    3.8050 C   0  0  0  0  0  0  0  0  0  0  0  0
    1.0690    0.1960    5.1910 C   0  0  0  0  0  0  0  0  0  0  0  0
    2.0790    0.8690    5.8560 N   0  0  0  0  0  0  0  0  0  0  0  0
    0.2360   -0.6030    5.8500 N   0  0  0  0  0  0  0  0  0  0  0  0
   -0.7290   -1.2490    5.2240 C   0  0  0  0  0  0  0  0  0  0  0  0
   -0.9250   -1.1440    3.9270 N   0  0  0  0  0  0  0  0  0  0  0  0
   -0.1420   -0.3680    3.1840 C   0  0  0  0  0  0  0  0  0  0  0  0
  1  2  1  0
  2  3  1  0
  2  4  1  0
  4  5  1  0
  6  5  1  6
  6  7  1  0
  6  8  1  0
  7 11  1  0
  8  9  1  6
  8 10  1  0
 10 11  1  0
 11 12  1  1
 12 13  1  0
 12 21  1  0
 13 14  2  0
 14 15  1  0
 15 16  1  0
 15 21  2  0
 16 17  1  0
 16 18  2  0
 18 19  1  0
 19 20  2  0
 20 21  1  0
M  END
$$$$
