GTS - Ideal conformer
     RDKit          3D

 23 22  0  0  0  0  0  0  0  0999 V2000
    2.5870    0.5570    4.7090 N   0  0  0  0  0  0  0  0  0  0  0  0
    1.1250    0.4570    4.8010 C   0  0  2  0  0  0  0  0  0  0  0  0
    0.7530   -0.3870    5.9920 C   0  0  0  0  0  0  0  0  0  0  0  0
    1.4920   -1.2680    6.3620 O   0  0  0  0  0  0  0  0  0  0  0  0
   -0.3990   -0.1610    6.6420 O   0  0  0  0  0  0  0  0  0  0  0  0
    0.5760   -0.1860    3.5270 C   0  0  0  0  0  0  0  0  0  0  0  0
    0.9540    0.6710    2.3180 C   0  0  0  0  0  0  0  0  0  0  0  0
    0.4130    0.0360    1.0620 C   0  0  0  0  0  0  0  0  0  0  0  0
   -0.2110   -1.0000    1.1280 O   0  0  0  0  0  0  0  0  0  0  0  0
    0.6250    0.6200   -0.1330 N   0  0  0  0  0  0  0  0  0  0  0  0
    0.1000    0.0030   -1.3530 C   0  0  2  0  0  0  0  0  0  0  0  0
    1.0010    0.3380   -2.5130 C   0  0  0  0  0  0  0  0  0  0  0  0
    1.9850    1.0250   -2.3380 O   0  0  0  0  0  0  0  0  0  0  0  0
   -1.3060    0.5360   -1.6290 C   0  0  0  0  0  0  0  0  0  0  0  0
   -2.3910    0.1320   -0.2320 S   0  0  0  0  0  6  0  0  0  0  0  0
   -2.6640   -1.2600   -0.1670 O   0  0  0  0  0  0  0  0  0  0  0  0
   -2.0620    0.8920    0.9220 O   0  0  0  0  0  0  0  0  0  0  0  0
   -3.7310    0.7190   -0.6530 O   0  0  0  0  0  0  0  0  0  0  0  0
    0.7130   -0.1250   -3.7460 N   0  0  0  0  0  0  0  0  0  0  0  0
    1.5890    0.2000   -4.8740 C   0  0  0  0  0  0  0  0  0  0  0  0
    1.0490   -0.4340   -6.1290 C   0  0  0  0  0  0  0  0  0  0  0  0
    1.6930   -0.2690   -7.2950 O   0  0  0  0  0  0  0  0  0  0  0  0
    0.0360   -1.0910   -6.0860 O   0  0  0  0  0  0  0  0  0  0  0  0
  2  1  1  6
  2  3  1  0
  2  6  1  0
  3  4  2  0
  3  5  1  0
  6  7  1  0
  7  8  1  0
  8  9  2  0
  8 10  1  0
 10 11  1  0
 11 12  1  0
 11 14  1  6
 12 13  2  0
 12 19  1  0
 14 15  1  0
 15 16  2  0
 15 17  2  0
 15 18  1  0
 19 20  1  0
 20 21  1  0
 21 22  1  0
 21 23  2  0
M  END
$$$$
