HEM - Ideal conformer
     RDKit          3D

 43 50  0  0  0  0  0  0  0  0999 V2000
   -2.1610   -0.1250    0.4900 C   0  0  0  0  0  0  0  0  0  0  0  0
    1.4580   -3.4190    0.3060 C   0  0  0  0  0  0  0  0  0  0  0  0
    4.7010    0.1690   -0.0690 C   0  0  0  0  0  0  0  0  0  0  0  0
    1.0750    3.4600    0.0180 C   0  0  0  0  0  0  0  0  0  0  0  0
   -1.4360   -1.3050    0.3800 C   0  0  0  0  0  0  0  0  0  0  0  0
   -2.0150   -2.5870    0.3200 C   0  0  0  0  0  0  0  0  0  0  0  0
   -1.0090   -3.5000    0.2700 C   0  0  0  0  0  0  0  0  0  0  0  0
    0.2160   -2.8030    0.2980 C   0  0  0  0  0  0  0  0  0  0  0  0
   -1.1750   -4.9960    0.1970 C   0  0  0  0  0  0  0  0  0  0  0  0
   -3.4900   -2.8930    0.3140 C   0  0  0  0  0  0  0  0  0  0  0  0
   -3.9980   -2.9260   -1.1290 C   0  0  0  0  0  0  0  0  0  0  0  0
   -5.4730   -3.2320   -1.1360 C   0  0  0  0  0  0  0  0  0  0  0  0
   -6.0590   -3.4050   -0.0940 O   0  0  0  0  0  0  0  0  0  0  0  0
   -6.1370   -3.3110   -2.3000 O   0  0  0  0  0  0  0  0  0  0  0  0
    2.6640   -2.7070    0.3080 C   0  0  0  0  0  0  0  0  0  0  0  0
    3.9370   -3.3280    0.4180 C   0  0  0  0  0  0  0  0  0  0  0  0
    4.8740   -2.3410    0.3140 C   0  0  0  0  0  0  0  0  0  0  0  0
    4.1170   -1.0790    0.1390 C   0  0  0  0  0  0  0  0  0  0  0  0
    4.2030   -4.7980    0.6130 C   0  0  0  0  0  0  0  0  0  0  0  0
    6.3390   -2.4970    0.3650 C   0  0  0  0  0  0  0  0  0  0  0  0
    6.9350   -3.4190   -0.3850 C   0  0  0  0  0  0  0  0  0  0  0  0
    3.9640    1.3450   -0.1740 C   0  0  0  0  0  0  0  0  0  0  0  0
    4.5310    2.6010   -0.4450 C   0  0  0  0  0  0  0  0  0  0  0  0
    3.5100    3.5360   -0.4370 C   0  0  0  0  0  0  0  0  0  0  0  0
    2.3040    2.8460   -0.1390 C   0  0  0  0  0  0  0  0  0  0  0  0
    5.9910    2.8800   -0.6970 C   0  0  0  0  0  0  0  0  0  0  0  0
    3.6490    4.9810   -0.6920 C   0  0  0  0  0  0  0  0  0  0  0  0
    4.2010    5.4070   -1.8230 C   0  0  0  0  0  0  0  0  0  0  0  0
   -0.1020    2.7530    0.2980 C   0  0  0  0  0  0  0  0  0  0  0  0
   -1.3820    3.3880    0.6410 C   0  0  0  0  0  0  0  0  0  0  0  0
   -2.2830    2.3890    0.7740 C   0  0  0  0  0  0  0  0  0  0  0  0
   -1.5610    1.1370    0.5110 C   0  0  0  0  0  0  0  0  0  0  0  0
   -1.6390    4.8630    0.8110 C   0  0  0  0  0  0  0  0  0  0  0  0
   -3.7410    2.5320    1.1230 C   0  0  0  0  0  0  0  0  0  0  0  0
   -4.5730    2.5630   -0.1600 C   0  0  0  0  0  0  0  0  0  0  0  0
   -6.0320    2.7060    0.1890 C   0  0  0  0  0  0  0  0  0  0  0  0
   -6.3720    2.7760    1.3470 O   0  0  0  0  0  0  0  0  0  0  0  0
   -6.9540    2.7550   -0.7850 O   0  0  0  0  0  0  0  0  0  0  0  0
   -0.0680   -1.4560    0.3210 N   0  0  0  0  0  0  0  0  0  0  0  0
    2.8200   -1.3860    0.2070 N   0  0  0  0  0  4  0  0  0  0  0  0
    2.6040    1.5060   -0.0330 N   0  0  0  0  0  0  0  0  0  0  0  0
   -0.2760    1.4310    0.2980 N   0  0  0  0  0  4  0  0  0  0  0  0
    1.0100    0.1570   -0.0600 Fe  0  0  1  0  0  4  0  0  0  0  0  0
  1  5  1  0
  1 32  2  0
  2  8  1  0
  2 15  2  0
  3 18  1  0
  3 22  2  0
  4 25  2  0
  4 29  1  0
  5  6  2  0
  5 39  1  0
  6  7  1  0
  6 10  1  0
  7  8  2  0
  7  9  1  0
  8 39  1  0
 10 11  1  0
 11 12  1  0
 12 13  2  0
 12 14  1  0
 15 16  1  0
 15 40  1  0
 16 17  2  0
 16 19  1  0
 17 18  1  0
 17 20  1  0
 18 40  2  0
 20 21  2  0
 22 23  1  0
 22 41  1  0
 23 24  2  0
 23 26  1  0
 24 25  1  0
 24 27  1  0
 25 41  1  0
 27 28  2  0
 29 30  1  0
 29 42  2  0
 30 31  2  0
 30 33  1  0
 31 32  1  0
 31 34  1  0
 32 42  1  0
 34 35  1  0
 35 36  1  0
 36 37  2  0
 36 38  1  0
 43 39  1  0
 43 40  1  0
 43 41  1  0
 43 42  1  0
M  CHG  3  40   1  42   1  43  -2
M  END
$$$$
