HIS - Ideal conformer
     RDKit          3D

 10 10  0  0  0  0  0  0  0  0999 V2000
   -0.0400   -1.2100    0.0530 N   0  0  0  0  0  0  0  0  0  0  0  0
    1.1720   -1.7090    0.6520 C   0  0  2  0  0  0  0  0  0  0  0  0
    1.0830   -3.2070    0.9050 C   0  0  0  0  0  0  0  0  0  0  0  0
    0.0400   -3.7700    1.2220 O   0  0  0  0  0  0  0  0  0  0  0  0
    1.4840   -0.9750    1.9620 C   0  0  0  0  0  0  0  0  0  0  0  0
    2.9400   -1.0600    2.3530 C   0  0  0  0  0  0  0  0  0  0  0  0
    3.3800   -2.0750    3.1290 N   0  0  0  0  0  0  0  0  0  0  0  0
    3.9600   -0.2510    2.0460 C   0  0  0  0  0  0  0  0  0  0  0  0
    4.6930   -1.9080    3.3170 C   0  0  0  0  0  0  0  0  0  0  0  0
    5.0580   -0.8010    2.6620 N   0  0  0  0  0  0  0  0  0  0  0  0
  2  1  1  1
  2  3  1  0
  2  5  1  0
  3  4  2  0
  5  6  1  0
  6  7  1  0
  6  8  2  0
  7  9  2  0
  8 10  1  0
  9 10  1  0
M  CHG  1   7   1
M  END
$$$$
