LEU - Ideal conformer
     RDKit          3D

  8  7  0  0  0  0  0  0  0  0999 V2000
   -1.6610    0.6270   -0.4060 N   0  0  0  0  0  0  0  0  0  0  0  0
   -0.2050    0.4410   -0.4670 C   0  0  2  0  0  0  0  0  0  0  0  0
    0.1800   -0.0550   -1.8360 C   0  0  0  0  0  0  0  0  0  0  0  0
   -0.5910   -0.7310   -2.4740 O   0  0  0  0  0  0  0  0  0  0  0  0
    0.2210   -0.5830    0.5850 C   0  0  0  0  0  0  0  0  0  0  0  0
   -0.1700   -0.0790    1.9760 C   0  0  0  0  0  0  0  0  0  0  0  0
    0.2560   -1.1040    3.0290 C   0  0  0  0  0  0  0  0  0  0  0  0
    0.5260    1.2540    2.2500 C   0  0  0  0  0  0  0  0  0  0  0  0
  2  1  1  6
  2  3  1  0
  2  5  1  0
  3  4  2  0
  5  6  1  0
  6  7  1  0
  6  8  1  0
M  END
$$$$
