PHE - Ideal conformer
     RDKit          3D

 11 11  0  0  0  0  0  0  0  0999 V2000
    1.3170    0.9620    1.0140 N   0  0  0  0  0  0  0  0  0  0  0  0
   -0.0200    0.4260    1.3000 C   0  0  2  0  0  0  0  0  0  0  0  0
   -0.1090    0.0470    2.7560 C   0  0  0  0  0  0  0  0  0  0  0  0
    0.8790   -0.3170    3.3460 O   0  0  0  0  0  0  0  0  0  0  0  0
   -0.2700   -0.8090    0.4340 C   0  0  0  0  0  0  0  0  0  0  0  0
   -0.1810   -0.4300   -1.0200 C   0  0  0  0  0  0  0  0  0  0  0  0
    1.0310   -0.4980   -1.6800 C   0  0  0  0  0  0  0  0  0  0  0  0
   -1.3140   -0.0180   -1.6980 C   0  0  0  0  0  0  0  0  0  0  0  0
    1.1120   -0.1500   -3.0150 C   0  0  0  0  0  0  0  0  0  0  0  0
   -1.2310    0.3330   -3.0320 C   0  0  0  0  0  0  0  0  0  0  0  0
   -0.0180    0.2650   -3.6910 C   0  0  0  0  0  0  0  0  0  0  0  0
  2  1  1  1
  2  3  1  0
  2  5  1  0
  3  4  2  0
  5  6  1  0
  6  7  2  0
  6  8  1  0
  7  9  1  0
  8 10  2  0
  9 11  2  0
 10 11  1  0
M  END
$$$$
