PMP - Ideal conformer
     RDKit          3D

 16 16  0  0  0  0  0  0  0  0999 V2000
    1.9910   -0.2220    2.1120 N   0  0  0  0  0  0  0  0  0  0  0  0
    1.1970   -0.0710    3.1540 C   0  0  0  0  0  0  0  0  0  0  0  0
    1.7680   -0.1590    4.5460 C   0  0  0  0  0  0  0  0  0  0  0  0
   -0.1580    0.1600    2.9820 C   0  0  0  0  0  0  0  0  0  0  0  0
   -0.9730    0.3150    4.0580 O   0  0  0  0  0  0  0  0  0  0  0  0
   -0.6710    0.2440    1.6910 C   0  0  0  0  0  0  0  0  0  0  0  0
   -2.1370    0.5010    1.4580 C   0  0  0  0  0  0  0  0  0  0  0  0
   -2.8560   -0.7780    1.3960 N   0  0  0  0  0  0  0  0  0  0  0  0
    0.1980    0.0790    0.6250 C   0  0  0  0  0  0  0  0  0  0  0  0
    1.5370   -0.1550    0.8770 C   0  0  0  0  0  0  0  0  0  0  0  0
   -0.3090    0.1550   -0.7910 C   0  0  0  0  0  0  0  0  0  0  0  0
    0.7760   -0.0460   -1.6980 O   0  0  0  0  0  0  0  0  0  0  0  0
    0.1650    0.0460   -3.1840 P   0  0  0  0  0  5  0  0  0  0  0  0
   -0.4440    1.3790   -3.3840 O   0  0  0  0  0  0  0  0  0  0  0  0
    1.3400   -0.1730   -4.2620 O   0  0  0  0  0  0  0  0  0  0  0  0
   -0.9570   -1.0910   -3.3750 O   0  0  0  0  0  0  0  0  0  0  0  0
  1  2  2  0
  1 10  1  0
  2  3  1  0
  2  4  1  0
  4  5  1  0
  4  6  2  0
  6  7  1  0
  6  9  1  0
  7  8  1  0
  9 10  2  0
  9 11  1  0
 11 12  1  0
 12 13  1  0
 13 14  2  0
 13 15  1  0
 13 16  1  0
M  END
$$$$
