SER - Ideal conformer
     RDKit          3D

  6  5  0  0  0  0  0  0  0  0999 V2000
    1.5250    0.4930   -0.6080 N   0  0  0  0  0  0  0  0  0  0  0  0
    0.1000    0.4690   -0.2520 C   0  0  2  0  0  0  0  0  0  0  0  0
   -0.0530    0.0040    1.1730 C   0  0  0  0  0  0  0  0  0  0  0  0
    0.7510   -0.7600    1.6490 O   0  0  0  0  0  0  0  0  0  0  0  0
   -0.6420   -0.4890   -1.1840 C   0  0  0  0  0  0  0  0  0  0  0  0
   -0.4960   -0.0490   -2.5350 O   0  0  0  0  0  0  0  0  0  0  0  0
  2  1  1  6
  2  3  1  0
  2  5  1  0
  3  4  2  0
  5  6  1  0
M  END
$$$$
