DT - Ideal conformer
     RDKit          3D

 21 22  0  0  0  0  0  0  0  0999 V2000
   -3.9120   -2.3110    1.6360 O   0  0  0  0  0  0  0  0  0  0  0  0
   -3.9680   -1.6650    3.1180 P   0  0  0  0  0  5  0  0  0  0  0  0
   -4.4060   -2.5990    4.2080 O   0  0  0  0  0  0  0  0  0  0  0  0
   -4.9010   -0.3600    2.9200 O   0  0  0  0  0  0  0  0  0  0  0  0
   -2.4930   -1.0280    3.3150 O   0  0  0  0  0  0  0  0  0  0  0  0
   -2.0050   -0.1360    2.3270 C   0  0  0  0  0  0  0  0  0  0  0  0
   -0.6110    0.3280    2.7280 C   0  0  1  0  0  0  0  0  0  0  0  0
    0.2470   -0.8290    2.7640 O   0  0  0  0  0  0  0  0  0  0  0  0
    0.0080    1.2860    1.7200 C   0  0  1  0  0  0  0  0  0  0  0  0
    0.9650    2.1210    2.3680 O   0  0  0  0  0  0  0  0  0  0  0  0
    0.7100    0.3600    0.7540 C   0  0  0  0  0  0  0  0  0  0  0  0
    1.1570   -0.7780    1.6570 C   0  0  2  0  0  0  0  0  0  0  0  0
    1.1640   -2.0470    0.9890 N   0  0  0  0  0  0  0  0  0  0  0  0
    2.3330   -2.5440    0.3740 C   0  0  0  0  0  0  0  0  0  0  0  0
    3.4100   -1.9450    0.3630 O   0  0  0  0  0  0  0  0  0  0  0  0
    2.1940   -3.7930   -0.2400 N   0  0  0  0  0  0  0  0  0  0  0  0
    1.0470   -4.5700   -0.3000 C   0  0  0  0  0  0  0  0  0  0  0  0
    0.9950   -5.6630   -0.8570 O   0  0  0  0  0  0  0  0  0  0  0  0
   -0.1430   -3.9800    0.3690 C   0  0  0  0  0  0  0  0  0  0  0  0
   -1.4200   -4.7570    0.3470 C   0  0  0  0  0  0  0  0  0  0  0  0
   -0.0130   -2.7840    0.9580 C   0  0  0  0  0  0  0  0  0  0  0  0
  1  2  1  0
  2  3  2  0
  2  4  1  0
  2  5  1  0
  5  6  1  0
  7  6  1  6
  7  8  1  0
  7  9  1  0
  8 12  1  0
  9 10  1  1
  9 11  1  0
 11 12  1  0
 12 13  1  6
 13 14  1  0
 13 21  1  0
 14 15  2  0
 14 16  1  0
 16 17  1  0
 17 18  2  0
 17 19  1  0
 19 20  1  0
 19 21  2  0
M  END
